LTspice 24.1.10 for Windows
Circuit: D:\2A_Projet_Bras\simulation\diagram_initial.net
Start Time: Tue Feb  3 14:39:34 2026
solver = Normal
Maximum thread count: 8
tnom = 27
temp = 27
method = trap
Early termination of direct N-R iteration.
Direct Newton iteration failed to find .op point.  (Use ".option noopiter" to skip.)
Starting Gmin stepping
Gmin = 10
Gmin = 1.07374
vernier = 0.5
vernier = 0.25
vernier = 0.125
vernier = 0.0625
Gmin = 1.15289
vernier = 0.03125
Gmin = 1.0585
vernier = 0.015625
vernier = 0.0208333
vernier = 0.0104167
Gmin = 1.04074
vernier = 0.00520833
vernier = 0.00694444
vernier = 0.00347222
Gmin = 1.03131
vernier = 0.00462963
vernier = 0.00231481
Gmin = 1.02447
vernier = 0.00308642
vernier = 0.00154321
Gmin = 1.01954
vernier = 0.00205761
vernier = 0.00102881
Gmin = 1.01627
vernier = 0.00137174
vernier = 0.00068587
Gmin = 1.01375
vernier = 0.000914493
Gmin = 1.01172
vernier = 0.00121932
vernier = 0.000609662
vernier = 0.000812882
Gmin = 1.01031
vernier = 0.000406441
vernier = 0.000541921
Gmin = 1.00946
vernier = 0.000722562
vernier = 0.000541921
vernier = 0.000406441
Gmin = 1.00864
vernier = 0.000541921
vernier = 0.000406441
Gmin = 1.00782
vernier = 0.000541921
vernier = 0.000406441
Gmin = 0
Gmin stepping failed

Starting source stepping with srcstepmethod=0
Source Step = 3.0303%
Source Step = 18.1937%
vernier = 0.000976562
Source Step = 18.2114%
Source Step = 18.241%
Source Step = 18.2706%
Source Step = 18.3002%
Source Step = 18.3298%
vernier = 0.00146484
Source Step = 18.3668%
Source Step = 18.4112%
Source Step = 18.4556%
Source Step = 18.4999%
Source Step = 18.5443%
vernier = 0.00219727
Source Step = 18.5976%
Source Step = 18.6642%
Source Step = 18.7308%
Source Step = 18.7973%
Source Step = 18.8639%
vernier = 0.0032959
Source Step = 18.9405%
Source Step = 19.0404%
Source Step = 19.1403%
Source Step = 19.2401%
Source Step = 19.34%
vernier = 0.00494385
Source Step = 19.4499%
Source Step = 19.5997%
Source Step = 19.7495%
Source Step = 19.8993%
Source Step = 20.0491%
vernier = 0.00741577
Source Step = 20.2064%
Source Step = 20.4311%
Source Step = 20.6559%
Source Step = 20.8806%
Source Step = 21.1053%
Source Step = 21.33%
vernier = 0.0111237
Source Step = 21.6671%
Source Step = 22.0042%
Source Step = 22.3413%
Source Step = 22.6784%
Source Step = 23.0154%
vernier = 0.0166855
Source Step = 23.5042%
Source Step = 24.0098%
Source Step = 24.5154%
Source Step = 25.0211%
Source Step = 25.5267%
vernier = 0.0250282
Source Step = 26.2346%
Source Step = 26.993%
Source Step = 27.7514%
Source Step = 28.5098%
Source Step = 29.2683%
vernier = 0.0375423
Source Step = 30.2922%
Source Step = 31.4298%
Source Step = 32.5675%
Source Step = 33.7051%
Source Step = 34.8427%
vernier = 0.0563135
Source Step = 36.3217%
Source Step = 38.0282%
Source Step = 39.7346%
Source Step = 41.4411%
Source Step = 43.1476%
vernier = 0.0844703
Source Step = 45.2807%
Source Step = 47.8404%
Source Step = 50.4001%
Source Step = 52.9598%
Source Step = 55.5195%
vernier = 0.126705
Source Step = 58.5911%
Source Step = 62.4307%
Source Step = 66.2702%
Source Step = 70.1098%
Source Step = 73.9494%
vernier = 0.190058
Source Step = 78.3648%
Source Step = 84.1242%
Source Step = 89.8835%
Source Step = 95.6429%
Source Step = 100%
vernier = 0.285087
Source Step = 100%
Source stepping succeeded in finding the operating point.

Total elapsed time: 4.291 seconds.

Files loaded:
D:\2A_Projet_Bras\simulation\diagram_initial.net
C:\Users\laure\AppData\Local\LTspice\lib\cmp\standard.dio
C:\Users\laure\AppData\Local\LTspice\lib\sub\LTC.lib

