LTspice 24.1.10 for Windows
Circuit: D:\2A_Projet_Bras\simulation\diagram_modified.net
Start Time: Tue Jan 27 17:13:36 2026
solver = Normal
Maximum thread count: 8
tnom = 27
temp = 27
method = trap
Direct Newton iteration failed to find .op point.  (Use ".option noopiter" to skip.)
Starting Gmin stepping
Gmin = 10
Gmin = 1.07374
vernier = 0.5
vernier = 0.25
vernier = 0.125
vernier = 0.0625
Gmin = 1.15289
vernier = 0.03125
Gmin = 1.0585
vernier = 0.015625
vernier = 0.0208333
vernier = 0.0104167
Gmin = 1.04074
vernier = 0.00520833
vernier = 0.00694444
vernier = 0.00347222
Gmin = 1.03131
vernier = 0.00462963
vernier = 0.00231481
Gmin = 1.02447
vernier = 0.00308642
vernier = 0.00154321
Gmin = 1.01954
vernier = 0.00205761
vernier = 0.00102881
Gmin = 1.01627
vernier = 0.00137174
vernier = 0.00068587
Gmin = 1.01375
vernier = 0.000914493
Gmin = 1.01172
vernier = 0.00121932
vernier = 0.000609662
vernier = 0.000812882
Gmin = 1.01031
vernier = 0.000406441
vernier = 0.000541921
Gmin = 1.00946
vernier = 0.000722562
vernier = 0.000541921
vernier = 0.000406441
Gmin = 1.00864
vernier = 0.000541921
vernier = 0.000406441
Gmin = 1.00782
vernier = 0.000541921
vernier = 0.000406441
Gmin = 0
Gmin stepping failed

Starting source stepping with srcstepmethod=0
Source Step = 3.0303%
Source Step = 33.3333%
vernier = 0.25
Source Step = 32.0076%
Source Step = 33.1439%
Source Step = 33.6174%
Source Step = 34.0909%
Source Step = 34.5644%
Source Step = 35.0379%
vernier = 0.0234375
Source Step = 35.5824%
Source Step = 36.2926%
Source Step = 37.0028%
Source Step = 37.7131%
Source Step = 38.4233%
vernier = 0.0351562
Source Step = 39.2045%
Source Step = 40.2699%
Source Step = 41.3352%
Source Step = 42.4006%
Source Step = 43.4659%
vernier = 0.0527344
Source Step = 44.5845%
Source Step = 46.1825%
Source Step = 47.7805%
Source Step = 49.3786%
Source Step = 50.9766%
Source Step = 52.5746%
vernier = 0.0791016
Source Step = 54.9716%
Source Step = 57.3686%
Source Step = 59.7656%
Source Step = 62.1626%
Source Step = 64.5597%
vernier = 0.118652
Source Step = 68.0353%
Source Step = 71.6309%
Source Step = 75.2264%
Source Step = 78.8219%
Source Step = 82.4174%
vernier = 0.177979
Source Step = 87.4512%
Source Step = 92.8445%
Source Step = 98.2377%
Source stepping succeeded in finding the operating point.

Total elapsed time: 4.687 seconds.

Files loaded:
D:\2A_Projet_Bras\simulation\diagram_modified.net
C:\Users\laure\AppData\Local\LTspice\lib\cmp\standard.dio
C:\Users\laure\AppData\Local\LTspice\lib\sub\LTC.lib

